 0          /  PSS/E-30.0, MON, SEP 20 2004  17:32
 0 / End of Bus Voltage Constraint data, begin Adjustable Bus Shunt data
 0 / End of Adjustable Bus Shunt data, begin Bus Load data
 0 / End of Bus Load data, begin Adjustable Bus Load Tables
 0 / End of Adjustable Bus Load Tables, begin Generator Dispatch data
3, 1, 1.000000, 1
2, 1, 1.000000, 2
1, 1, 1.000000, 3
8, 1, 1.000000, 4
6, 1, 1.000000, 5
 0 / End of Generator Dispatch data, begin Active Power Dispatch Tables
1, 82.4998620432, 5.80178826582, 1.000000, 2, 1, 1
2, 157.50255639, 48.1482663648, 1.000000, 2, 1, 2
3, 245.445086581, 37.9649606792, 1.000000, 2, 1, 3
4, 80.1447804924, 0.319828670472, 1.000000, 2, 1, 4
5, 110.503275581, 11.4610934721, 1.000000, 2, 1, 5
 0 / End of Active Power Dispatch Tables, begin Generation Reserve data
 0 / End of Generation Reserve data, begin Generation Reactive Capability data
 0 / End of Generation Reactive Capability data, begin Adjustable Branch Reactance data
 0 / End of Adjustable Branch Reactance data, begin Piece - wise Linear Cost Tables
1, LINEAR 1, 10
5.80178826582, 3409.77768201
14.3237964633, 4639.70192051
22.8458046608, 5876.74930659
31.3678128583, 7120.91984024
39.8898210558, 8372.21352147
48.4118292532, 9630.63035026
56.9338374507, 10896.1703266
65.4558456482, 12168.8334506
73.9778538457, 13448.6197221
82.4998620432, 14735.5291412
2, LINEAR 2, 10
48.1482663648, 353.162814895
60.2987430343, 435.023619633
72.4492197038, 520.863408873
84.5996963733, 610.682182617
96.7501730427, 704.479940864
108.900649712, 802.256683614
121.051126382, 904.012410868
133.201603051, 1009.74712262
145.352079721, 1119.46081888
157.50255639, 1233.15349965
3, LINEAR 3, 10
37.9649606792, 9706.86274447
61.0183080017, 17694.7514191
84.0716553241, 27895.9312878
107.125002647, 40310.4023504
130.178349969, 54938.1646069
153.231697292, 71779.2180574
176.285044614, 90833.5627019
199.338391936, 112101.19854
222.391739259, 135582.125573
245.445086581, 161276.343799
4, LINEAR 4, 10
0.319828670472, 295.865088134
9.1892677618, 1913.60850411
18.0587068531, 3842.03082914
26.9281459445, 6081.13206321
35.7975850358, 8630.91220633
44.6670241271, 11491.3712585
53.5364632184, 14662.5092197
62.4059023098, 18144.32609
71.2753414011, 21936.8218693
80.1447804924, 26039.9965576
5, LINEAR 5, 10
11.4610934721, 148.906997825
22.4657803731, 203.163028589
33.470467274, 257.869865285
44.475154175, 313.027507911
55.4798410759, 368.635956469
66.4845279769, 424.695210957
77.4892148778, 481.205271377
88.4939017788, 538.166137728
99.4985886797, 595.57781001
110.503275581, 653.440288223
 0 / End of Piece-wise Linear Cost Tables, begin Piece-wise Quadratic Cost Tables
 0 / End of Piece-wise Quadratic Cost Tables, begin Polynomial Cost Tables
 0 / End of Polynomial Cost Tables, begin Period Reserve data
 0 / End of Period Reserve data, begin Branch Flow Constraint data
 0 / End of Branch Flow Constraint data, begin Interface Flow data
 0 / End of Interface Flow data, begin Linear Constraint Equation Dependency data
 0 / End of Linear Constraint Equation Dependency data, begin 2-terminal dc Line Constraint data
 0 / End of 2-terminal dc Line Constraint data